%chk=NCH.chk
%mem=230GB
%nproc=32
#P PBEQIDH/gen Extralinks=L608 INT=(ultrafine) SCF=tight integral=NoXCTest 

NCH dimer at equilibrium distance computed at CCSD(T)/CBS

0 1
N     0.000000    0.000000   -3.252056			
C     0.000000    0.000000   -4.407429			
H     0.000000    0.000000   -5.474977			
   
H    0
s  3   1.00
     13.0107010              0.19682158D-01
      1.9622572              0.13796524
      0.44453796             0.47831935
S   1   1.00
      0.4617867850             1.0000000
P   1   1.00
      0.8000000              1.0000000
P   1   1.00
      0.0791340242          1.0000000
****
N     0
S   5   1.00
   1712.8415853             -0.53934125305D-02
    257.64812677            -0.40221581118D-01
     58.458245853           -0.17931144990
     16.198367905           -0.46376317823
      5.0052600809          -0.44171422662
S   1   1.00
      0.58731856571          1.0000000
S   1   1.00
      0.18764592253          1.0000000
S   1   1.00
      0.96171241529D-01      1.0000000
P   3   1.00
     13.571470233           -0.40072398852D-01
      2.9257372874          -0.21807045028
      0.79927750754         -0.51294466049
P   1   1.00
      0.1918861474           1.0000000
D   1   1.00
      1.0000000              1.0000000
D   1   1.00
      0.3095443259           1.0000000
****
C     0
S    5   1.00
   1238.4016938              0.54568832082D-02
    186.29004992             0.40638409211D-01
     42.251176346            0.18025593888
     11.676557932            0.46315121755
      3.5930506482           0.44087173314
S    1   1.00
      0.40245147363          1.0000000
S    1   1.00
      0.13090182668          1.0000000
S    1   1.00
      0.67053540256D-01      1.0000000
P    3   1.00
      9.4680970621           0.38387871728D-01
      2.0103545142           0.21117025112
      0.54771004707          0.51328172114
P    1   1.00
      0.1508036550           1.0000000
D    1   1.00
      0.8000000              1.0000000
D    1   1.00
      0.3229294790           1.0000000
****

-79

